data original/sourcebus_22000.trafo_75612178_75612178/Lines.dss
New Line.line_75611218_3103386_3103145 Units=km Length=0.019799999237060547 bus1=3103145.1.2.3 bus2=3103386.1.2.3 switch=n enabled=y phases=3 Linecode=3P_Code5
New Line.line_75611275_3102384_3102287 Units=km Length=0.04 bus1=3102287.1.2.3 bus2=3102384.1.2.3 switch=n enabled=y phases=3 Linecode=3P_OH_Code2
New Line.line_75611374_3102542_3102372 Units=km Length=0.038400001525878906 bus1=3102372.1.2.3 bus2=3102542.1.2.3 switch=n enabled=y phases=3 Linecode=3P_Code0
New Line.line_75611386_3102713_3102383 Units=km Length=0.018700000762939453 bus1=3102383.1.2.3 bus2=3102713.1.2.3 switch=n enabled=y phases=3 Linecode=3P_OH_Code4
New Line.line_75611387_3102702_3102384 Units=km Length=0.04520000076293945 bus1=3102384.1.2.3 bus2=3102702.1.2.3 switch=n enabled=y phases=3 Linecode=3P_OH_Code2
New Line.line_75611482_3102384_3102444 Units=km Length=0.019 bus1=3102444.3 bus2=3102384.3 switch=n enabled=y phases=1 Linecode=1P_Code1
New Line.line_75611532_3102372_3102482 Units=km Length=0.018600000381469726 bus1=3102482.3 bus2=3102372.3 switch=n enabled=y phases=1 Linecode=1P_Code1
New Line.line_75611594_3102645_3102519 Units=km Length=0.0115 bus1=3102519.1.2.3 bus2=3102645.1.2.3 switch=n enabled=y phases=3 Linecode=3P_OH_Code2
New Line.line_75611621_3102933_3102533 Units=km Length=0.024399999618530274 bus1=3102533.1 bus2=3102933.1 switch=n enabled=y phases=1 Linecode=1P_Code1
New Line.line_75611631_3102533_3102542 Units=km Length=0.011899999618530274 bus1=3102542.1 bus2=3102533.1 switch=n enabled=y phases=1 Linecode=1P_Code1
New Line.line_75611647_3102713_3102547 Units=km Length=0.0185 bus1=3102547.1 bus2=3102713.1 switch=n enabled=y phases=1 Linecode=1P_Code1
New Line.line_75611655_3102519_3102554 Units=km Length=0.04179999923706055 bus1=3102554.1.2.3 bus2=3102519.1.2.3 switch=n enabled=y phases=3 Linecode=3P_OH_Code2
New Line.line_75611669_3102583_3102563 Units=km Length=0.052299999237060545 bus1=3102563.1.2.3 bus2=3102583.1.2.3 switch=n enabled=y phases=3 Linecode=3P_OH_Code2
New Line.line_75611697_3102962_3102533 Units=km Length=0.017200000762939455 bus1=3102533.1 bus2=3102962.1 switch=n enabled=y phases=1 Linecode=1P_Code1
New Line.line_75611708_3102970_3102583 Units=km Length=0.025500000000000002 bus1=3102583.3 bus2=3102970.3 switch=n enabled=y phases=1 Linecode=1P_Code1
New Line.line_75611709_3102542_3102584 Units=km Length=0.027600000381469727 bus1=3102584.2 bus2=3102542.2 switch=n enabled=y phases=1 Linecode=1P_Code1
New Line.line_75611731_3102983_3102542 Units=km Length=0.015800000190734863 bus1=3102542.3 bus2=3102983.3 switch=n enabled=y phases=1 Linecode=1P_Code1
New Line.line_75611734_3102986_3102384 Units=km Length=0.016899999618530274 bus1=3102384.1 bus2=3102986.1 switch=n enabled=y phases=1 Linecode=1P_Code1
New Line.line_75611735_3102383_3102542 Units=km Length=0.0430999984741211 bus1=3102542.1.2.3 bus2=3102383.1.2.3 switch=n enabled=y phases=3 Linecode=3P_OH_Code2
New Line.line_75611775_3102287_3102618 Units=km Length=0.023 bus1=3102618.3 bus2=3102287.3 switch=n enabled=y phases=1 Linecode=1P_Code1
New Line.line_75611786_3103010_3102583 Units=km Length=0.015100000381469726 bus1=3102583.3 bus2=3103010.3 switch=n enabled=y phases=1 Linecode=1P_Code1
New Line.line_75611837_3103037_3102645 Units=km Length=0.017700000762939455 bus1=3102645.3 bus2=3103037.3 switch=n enabled=y phases=1 Linecode=1P_Code1
New Line.line_75611838_3103038_3102554 Units=km Length=0.024899999618530275 bus1=3102554.2 bus2=3103038.2 switch=n enabled=y phases=1 Linecode=1P_Code1
New Line.line_75611856_3103045_3102554 Units=km Length=0.031700000762939454 bus1=3102554.3 bus2=3103045.3 switch=n enabled=y phases=1 Linecode=1P_Code1
New Line.line_75611892_3102702_3102663 Units=km Length=0.027700000762939454 bus1=3102663.2 bus2=3102702.2 switch=n enabled=y phases=1 Linecode=1P_Code1
New Line.line_75611907_3102287_3102383 Units=km Length=0.024600000381469728 bus1=3102383.1.2.3 bus2=3102287.1.2.3 switch=n enabled=y phases=3 Linecode=3P_OH_Code2
New Line.line_75611939_3102287_3102583 Units=km Length=0.038299999237060546 bus1=3102583.1.2.3 bus2=3102287.1.2.3 switch=n enabled=y phases=3 Linecode=3P_OH_Code2
New Line.line_75611962_3102645_3102683 Units=km Length=0.022600000381469726 bus1=3102683.3 bus2=3102645.3 switch=n enabled=y phases=1 Linecode=1P_Code1
New Line.line_75612002_3102563_3102698 Units=km Length=0.022200000762939452 bus1=3102698.3 bus2=3102563.3 switch=n enabled=y phases=1 Linecode=1P_Code1
New Line.line_75612022_3102554_3102702 Units=km Length=0.032599998474121095 bus1=3102702.1.2.3 bus2=3102554.1.2.3 switch=n enabled=y phases=3 Linecode=3P_OH_Code2
New Line.line_75612057_3103145_3102713 Units=km Length=0.047099998474121094 bus1=3102713.1.2.3 bus2=3103145.1.2.3 switch=n enabled=y phases=3 Linecode=3P_OH_Code4
New Line.line_75612086_3102554_3102723 Units=km Length=0.03390000152587891 bus1=3102723.1 bus2=3102554.1 switch=n enabled=y phases=1 Linecode=1P_Code1
New Line.line_75614259_3103411_3103386 Units=km Length=0.04886634847764293 bus1=3103386.3 bus2=3103411.3 switch=n enabled=y phases=1 Linecode=1P_Code3
New Line.line_75614260_3103412_3103386 Units=km Length=0.04886634847764293 bus1=3103386.3 bus2=3103412.3 switch=n enabled=y phases=1 Linecode=1P_Code3
New Line.line_75614261_3103413_3103386 Units=km Length=0.0337768972609573 bus1=3103386.1 bus2=3103413.1 switch=n enabled=y phases=1 Linecode=1P_Code3
New Line.line_75614262_3103414_3103386 Units=km Length=0.0337768972609573 bus1=3103386.1 bus2=3103414.1 switch=n enabled=y phases=1 Linecode=1P_Code3
New Line.line_75614263_3103415_3103386 Units=km Length=0.023126347107716508 bus1=3103386.2 bus2=3103415.2 switch=n enabled=y phases=1 Linecode=1P_Code3
New Line.line_75614264_3103416_3103386 Units=km Length=0.023126347107716508 bus1=3103386.3 bus2=3103416.3 switch=n enabled=y phases=1 Linecode=1P_Code3
New Line.line_75614265_3103417_3103386 Units=km Length=0.027000090489512858 bus1=3103386.1 bus2=3103417.1 switch=n enabled=y phases=1 Linecode=1P_Code3
New Line.line_75614266_3103418_3103145 Units=km Length=0.011068750798614139 bus1=3103145.2 bus2=3103418.2 switch=n enabled=y phases=1 Linecode=1P_Code3
New Line.line_75614274_3103426_3102983 Units=km Length=0.0021439538386784796 bus1=3102983.3 bus2=3103426.3 switch=n enabled=y phases=1 Linecode=1P_Code3
New Line.line_75614275_3103427_3102698 Units=km Length=0.02310776985299023 bus1=3102698.3 bus2=3103427.3 switch=n enabled=y phases=1 Linecode=1P_Code3
New Line.line_75614303_3103455_3103037 Units=km Length=0.023505456132243113 bus1=3103037.3 bus2=3103455.3 switch=n enabled=y phases=1 Linecode=1P_Code3
New Line.line_75614323_3103475_3102983 Units=km Length=0.0021439538386784796 bus1=3102983.3 bus2=3103475.3 switch=n enabled=y phases=1 Linecode=1P_Code3
New Line.line_75614352_3103504_3103386 Units=km Length=0.027000090489512858 bus1=3103386.1 bus2=3103504.1 switch=n enabled=y phases=1 Linecode=1P_Code3
New Line.line_75614354_3103506_3103386 Units=km Length=0.008720356504664142 bus1=3103386.1 bus2=3103506.1 switch=n enabled=y phases=1 Linecode=1P_Code3
